   Input file: evaporation.pqi
  Output file: evaporation.out
Database file: /Users/cpinilla/software/phreeqc-3.7.3-15968/database/phreeqc.dat

------------------
Reading data base.
------------------

	SOLUTION_MASTER_SPECIES
	SOLUTION_SPECIES
	PHASES
	EXCHANGE_MASTER_SPECIES
	EXCHANGE_SPECIES
	SURFACE_MASTER_SPECIES
	SURFACE_SPECIES
	RATES
	END
------------------------------------
Reading input data for simulation 1.
------------------------------------

	SOLUTION 1
	    temp      25         # Temperature in Celsius
	    pH        7.0        # Assumed pH (adjust if needed)
	    pe        4.0        # Assumed pe (adjust if needed)
	    units     mol/kgw    # Input concentrations in molality (mol/kg water)
	    Na        0.538
	    Cl        0.486
	    S(6)      0.109      # Sulfate (SO4^2-)
	    Mg        0.058
	    Ca        0.024
	    K         0.007
	    C(+4)      0.004      # Bicarbonate
	    Ba        0.0000005  # Barium
	PHASES
	Magnesite
	    MgCO3 = Mg+2 + CO3-2
	    log_k -7.56  # Solubility constant at 25Â°C from literature
	    delta_h -22.0 kcal  # Enthalpy of reaction (optional)
	REACTION 4
	    H2O  1.0 # Remove 90% of water, simulating evaporation
	    -52.0 moles in 4 steps 
	SELECTED_OUTPUT
	    file evaporation_results.txt
	    reset false  # Keeps data from all steps in the output file
	    step
	    totals H2O Na Cl S(6) Mg Ca K HCO3 CO3 Ba
	    saturation_indices Calcite Gypsum Halite Sylvite Barite Magnesite Anhydrite    
	END
WARNING: Did not find master species, H2O.
WARNING: Did not find master species, HCO3.
WARNING: Did not find master species, CO3.
-------------------------------------------
Beginning of initial solution calculations.
-------------------------------------------

Initial solution 1.	

-----------------------------Solution composition------------------------------

	Elements           Molality       Moles

	Ba                5.000e-07   5.000e-07
	C(4)              4.000e-03   4.000e-03
	Ca                2.400e-02   2.400e-02
	Cl                4.860e-01   4.860e-01
	K                 7.000e-03   7.000e-03
	Mg                5.800e-02   5.800e-02
	Na                5.380e-01   5.380e-01
	S(6)              1.090e-01   1.090e-01

----------------------------Description of solution----------------------------

                                       pH  =   7.000    
                                       pe  =   4.000    
      Specific Conductance (µS/cm,  25°C)  = 52827
                          Density (g/cm³)  =   1.02986
                               Volume (L)  =   1.01271
                        Activity of water  =   0.980
                 Ionic strength (mol/kgw)  =   7.366e-01
                       Mass of water (kg)  =   1.000e+00
                 Total alkalinity (eq/kg)  =   3.666e-03
                       Total CO2 (mol/kg)  =   4.000e-03
                         Temperature (°C)  =  25.00
                  Electrical balance (eq)  =   1.335e-03
 Percent error, 100*(Cat-|An|)/(Cat+|An|)  =   0.11
                               Iterations  =   7
                                  Total H  = 1.110160e+02
                                  Total O  = 5.595386e+01

----------------------------Distribution of species----------------------------

                                               Log       Log       Log    mole V
   Species          Molality    Activity  Molality  Activity     Gamma    cm³/mol

   OH-             1.648e-07   9.920e-08    -6.783    -7.003    -0.220     -2.52
   H+              1.330e-07   1.000e-07    -6.876    -7.000    -0.124      0.00
   H2O             5.551e+01   9.801e-01     1.744    -0.009     0.000     18.07
Ba            5.000e-07
   Ba+2            2.774e-07   5.407e-08    -6.557    -7.267    -0.710    -10.91
   BaSO4           2.213e-07   2.622e-07    -6.655    -6.581     0.074     (0)  
   BaHCO3+         1.277e-09   9.620e-10    -8.894    -9.017    -0.123     (0)  
   BaCO3           2.052e-11   2.432e-11   -10.688   -10.614     0.074    -10.70
   BaOH+           2.728e-14   1.796e-14   -13.564   -13.746    -0.182     (0)  
C(4)          4.000e-03
   HCO3-           2.768e-03   1.856e-03    -2.558    -2.731    -0.174     27.16
   MgHCO3+         3.739e-04   2.328e-04    -3.427    -3.633    -0.206      5.83
   CO2             3.594e-04   4.258e-04    -3.444    -3.371     0.074     34.43
   NaHCO3          3.238e-04   3.837e-04    -3.490    -3.416     0.074      1.80
   CaHCO3+         1.498e-04   1.030e-04    -3.824    -3.987    -0.163      9.96
   NaCO3-          7.906e-06   5.958e-06    -5.102    -5.225    -0.123      3.21
   MgCO3           7.516e-06   8.905e-06    -5.124    -5.050     0.074    -17.09
   CaCO3           5.370e-06   6.363e-06    -5.270    -5.196     0.074    -14.60
   CO3-2           4.304e-06   8.705e-07    -5.366    -6.060    -0.694     -1.80
   (CO2)2          2.809e-09   3.328e-09    -8.551    -8.478     0.074     68.87
   BaHCO3+         1.277e-09   9.620e-10    -8.894    -9.017    -0.123     (0)  
   BaCO3           2.052e-11   2.432e-11   -10.688   -10.614     0.074    -10.70
Ca            2.400e-02
   Ca+2            1.753e-02   4.351e-03    -1.756    -2.361    -0.605    -16.65
   CaSO4           6.318e-03   7.486e-03    -2.199    -2.126     0.074      7.50
   CaHCO3+         1.498e-04   1.030e-04    -3.824    -3.987    -0.163      9.96
   CaCO3           5.370e-06   6.363e-06    -5.270    -5.196     0.074    -14.60
   CaOH+           9.391e-09   7.077e-09    -8.027    -8.150    -0.123     (0)  
   CaHSO4+         6.529e-09   4.921e-09    -8.185    -8.308    -0.123     (0)  
Cl            4.860e-01
   Cl-             4.860e-01   3.040e-01    -0.313    -0.517    -0.204     18.82
H(0)          1.195e-25
   H2              5.975e-26   7.079e-26   -25.224   -25.150     0.074     28.61
K             7.000e-03
   K+              6.588e-03   4.069e-03    -2.181    -2.391    -0.209      9.70
   KSO4-           4.124e-04   2.766e-04    -3.385    -3.558    -0.174     34.89
Mg            5.800e-02
   Mg+2            3.710e-02   1.072e-02    -1.431    -1.970    -0.539    -20.36
   MgSO4           2.052e-02   2.431e-02    -1.688    -1.614     0.074      5.84
   MgHCO3+         3.739e-04   2.328e-04    -3.427    -3.633    -0.206      5.83
   MgCO3           7.516e-06   8.905e-06    -5.124    -5.050     0.074    -17.09
   MgOH+           5.445e-07   3.815e-07    -6.264    -6.419    -0.155     (0)  
Na            5.380e-01
   Na+             5.111e-01   3.676e-01    -0.292    -0.435    -0.143     -0.46
   NaSO4-          2.658e-02   1.782e-02    -1.576    -1.749    -0.174     21.58
   NaHCO3          3.238e-04   3.837e-04    -3.490    -3.416     0.074      1.80
   NaCO3-          7.906e-06   5.958e-06    -5.102    -5.225    -0.123      3.21
   NaOH            3.077e-18   3.646e-18   -17.512   -17.438     0.074     (0)  
O(0)          0.000e+00
   O2              0.000e+00   0.000e+00   -42.171   -42.097     0.074     30.40
S(6)          1.090e-01
   SO4-2           5.517e-02   9.675e-03    -1.258    -2.014    -0.756     17.63
   NaSO4-          2.658e-02   1.782e-02    -1.576    -1.749    -0.174     21.58
   MgSO4           2.052e-02   2.431e-02    -1.688    -1.614     0.074      5.84
   CaSO4           6.318e-03   7.486e-03    -2.199    -2.126     0.074      7.50
   KSO4-           4.124e-04   2.766e-04    -3.385    -3.558    -0.174     34.89
   BaSO4           2.213e-07   2.622e-07    -6.655    -6.581     0.074     (0)  
   HSO4-           1.248e-07   9.406e-08    -6.904    -7.027    -0.123     40.99
   CaHSO4+         6.529e-09   4.921e-09    -8.185    -8.308    -0.123     (0)  

------------------------------Saturation indices-------------------------------

  Phase               SI** log IAP   log K(298 K,   1 atm)

  Anhydrite        -0.10     -4.38   -4.28  CaSO4
  Aragonite        -0.09     -8.42   -8.34  CaCO3
  Barite            0.56     -9.28   -9.84  BaSO4
  Calcite           0.06     -8.42   -8.48  CaCO3
  CO2(g)           -1.90     -3.37   -1.47  CO2
  Dolomite          0.63    -16.45  -17.08  CaMg(CO3)2
  Gypsum            0.19     -4.39   -4.58  CaSO4:2H2O
  H2(g)           -22.05    -25.15   -3.10  H2
  H2O(g)           -1.51     -0.01    1.50  H2O
  Halite           -2.52     -0.95    1.57  NaCl
  Magnesite        -0.47     -8.03   -7.56  MgCO3
  O2(g)           -39.21    -42.10   -2.89  O2
  Sylvite          -3.81     -2.91    0.90  KCl
  Witherite        -4.77    -13.33   -8.56  BaCO3

**For a gas, SI = log10(fugacity). Fugacity = pressure * phi / 1 atm.
  For ideal gases, phi = 1.

-----------------------------------------
Beginning of batch-reaction calculations.
-----------------------------------------

Reaction step 1.

Using solution 1.	
Using reaction 4.	

Reaction 4.	

	 -1.300e+01 moles of the following reaction have been added:

	                 Relative
	Reactant            moles

	H2O                  1.00000

	                 Relative
	Element             moles
	H                    2.00000
	O                    1.00000

-----------------------------Solution composition------------------------------

	Elements           Molality       Moles

	Ba                6.529e-07   5.000e-07
	C                 5.223e-03   4.000e-03
	Ca                3.134e-02   2.400e-02
	Cl                6.346e-01   4.860e-01
	K                 9.141e-03   7.000e-03
	Mg                7.574e-02   5.800e-02
	Na                7.025e-01   5.380e-01
	S                 1.423e-01   1.090e-01

----------------------------Description of solution----------------------------

                                       pH  =   6.946      Charge balance
                                       pe  =  -1.520      Adjusted to redox equilibrium
      Specific Conductance (µS/cm,  25°C)  = 65426
                          Density (g/cm³)  =   1.03950
                               Volume (L)  =   0.77801
                        Activity of water  =   0.974
                 Ionic strength (mol/kgw)  =   9.488e-01
                       Mass of water (kg)  =   7.658e-01
                 Total alkalinity (eq/kg)  =   4.787e-03
                       Total CO2 (mol/kg)  =   5.223e-03
                         Temperature (°C)  =  25.00
                  Electrical balance (eq)  =   1.335e-03
 Percent error, 100*(Cat-|An|)/(Cat+|An|)  =   0.11
                               Iterations  =  10
                                  Total H  = 8.501605e+01
                                  Total O  = 4.295386e+01

----------------------------Distribution of species----------------------------

                                               Log       Log       Log    mole V
   Species          Molality    Activity  Molality  Activity     Gamma    cm³/mol

   H+              1.520e-07   1.132e-07    -6.818    -6.946    -0.128      0.00
   OH-             1.494e-07   8.709e-08    -6.826    -7.060    -0.234     -2.19
   H2O             5.551e+01   9.741e-01     1.744    -0.011     0.000     18.07
Ba            6.529e-07
   Ba+2            3.624e-07   6.803e-08    -6.441    -7.167    -0.726    -10.67
   BaSO4           2.887e-07   3.591e-07    -6.540    -6.445     0.095     (0)  
   BaHCO3+         1.860e-09   1.456e-09    -8.730    -8.837    -0.106     (0)  
   BaCO3           2.613e-11   3.251e-11   -10.583   -10.488     0.095    -10.70
   BaOH+           3.080e-14   1.983e-14   -13.511   -13.703    -0.191     (0)  
C(-4)         4.747e-23
   CH4             4.747e-23   5.906e-23   -22.324   -22.229     0.095     35.46
C(4)          5.223e-03
   HCO3-           3.396e-03   2.233e-03    -2.469    -2.651    -0.182     27.76
   MgHCO3+         6.030e-04   3.651e-04    -3.220    -3.438    -0.218      5.85
   NaHCO3          4.875e-04   6.065e-04    -3.312    -3.217     0.095      1.80
   CO2             4.689e-04   5.834e-04    -3.329    -3.234     0.095     34.43
   CaHCO3+         2.358e-04   1.594e-04    -3.627    -3.798    -0.170      9.98
   NaCO3-          1.063e-05   8.319e-06    -4.973    -5.080    -0.106      4.32
   MgCO3           9.914e-06   1.233e-05    -5.004    -4.909     0.095    -17.09
   CaCO3           6.986e-06   8.692e-06    -5.156    -5.061     0.095    -14.60
   CO3-2           4.949e-06   9.249e-07    -5.305    -6.034    -0.728     -1.27
   (CO2)2          5.021e-09   6.247e-09    -8.299    -8.204     0.095     68.87
   BaHCO3+         1.860e-09   1.456e-09    -8.730    -8.837    -0.106     (0)  
   BaCO3           2.613e-11   3.251e-11   -10.583   -10.488     0.095    -10.70
Ca            3.134e-02
   Ca+2            2.268e-02   5.594e-03    -1.644    -2.252    -0.608    -16.50
   CaSO4           8.422e-03   1.048e-02    -2.075    -1.980     0.095      7.50
   CaHCO3+         2.358e-04   1.594e-04    -3.627    -3.798    -0.170      9.98
   CaCO3           6.986e-06   8.692e-06    -5.156    -5.061     0.095    -14.60
   CaOH+           1.021e-08   7.989e-09    -7.991    -8.098    -0.106     (0)  
   CaHSO4+         9.964e-09   7.798e-09    -8.002    -8.108    -0.106     (0)  
Cl            6.346e-01
   Cl-             6.346e-01   3.880e-01    -0.197    -0.411    -0.214     18.92
H(0)          1.600e-14
   H2              8.002e-15   9.956e-15   -14.097   -14.002     0.095     28.61
K             9.141e-03
   K+              8.560e-03   5.157e-03    -2.068    -2.288    -0.220      9.81
   KSO4-           5.805e-04   3.816e-04    -3.236    -3.418    -0.182     34.99
Mg            7.574e-02
   Mg+2            4.739e-02   1.398e-02    -1.324    -1.855    -0.530    -20.22
   MgSO4           2.774e-02   3.451e-02    -1.557    -1.462     0.095      5.84
   MgHCO3+         6.030e-04   3.651e-04    -3.220    -3.438    -0.218      5.85
   MgCO3           9.914e-06   1.233e-05    -5.004    -4.909     0.095    -17.09
   MgOH+           6.330e-07   4.366e-07    -6.199    -6.360    -0.161     (0)  
Na            7.025e-01
   Na+             6.633e-01   4.831e-01    -0.178    -0.316    -0.138     -0.34
   NaSO4-          3.879e-02   2.550e-02    -1.411    -1.593    -0.182     22.73
   NaHCO3          4.875e-04   6.065e-04    -3.312    -3.217     0.095      1.80
   NaCO3-          1.063e-05   8.319e-06    -4.973    -5.080    -0.106      4.32
   NaOH            3.381e-18   4.207e-18   -17.471   -17.376     0.095     (0)  
O(0)          0.000e+00
   O2              0.000e+00   0.000e+00   -64.494   -64.399     0.095     30.40
S(-2)         5.809e-19
   HS-             3.969e-19   2.314e-19   -18.401   -18.636    -0.234     21.49
   H2S             1.841e-19   2.290e-19   -18.735   -18.640     0.095     36.27
   S-2             1.435e-24   2.468e-25   -23.843   -24.608    -0.764     (0)  
   (H2S)2          2.221e-39   2.763e-39   -38.653   -38.559     0.095     30.09
S(6)          1.423e-01
   SO4-2           6.681e-02   1.053e-02    -1.175    -1.977    -0.802     18.07
   NaSO4-          3.879e-02   2.550e-02    -1.411    -1.593    -0.182     22.73
   MgSO4           2.774e-02   3.451e-02    -1.557    -1.462     0.095      5.84
   CaSO4           8.422e-03   1.048e-02    -2.075    -1.980     0.095      7.50
   KSO4-           5.805e-04   3.816e-04    -3.236    -3.418    -0.182     34.99
   BaSO4           2.887e-07   3.591e-07    -6.540    -6.445     0.095     (0)  
   HSO4-           1.481e-07   1.159e-07    -6.829    -6.936    -0.106     41.08
   CaHSO4+         9.964e-09   7.798e-09    -8.002    -8.108    -0.106     (0)  

------------------------------Saturation indices-------------------------------

  Phase               SI** log IAP   log K(298 K,   1 atm)

  Anhydrite         0.05     -4.23   -4.28  CaSO4
  Aragonite         0.05     -8.29   -8.34  CaCO3
  Barite            0.70     -9.14   -9.84  BaSO4
  Calcite           0.19     -8.29   -8.48  CaCO3
  CH4(g)          -19.43    -22.23   -2.80  CH4
  CO2(g)           -1.77     -3.23   -1.47  CO2
  Dolomite          0.91    -16.17  -17.08  CaMg(CO3)2
  Gypsum            0.33     -4.25   -4.58  CaSO4:2H2O
  H2(g)           -10.90    -14.00   -3.10  H2
  H2O(g)           -1.51     -0.01    1.50  H2O
  H2S(g)          -17.65    -25.58   -7.94  H2S
  Halite           -2.30     -0.73    1.57  NaCl
  Magnesite        -0.33     -7.89   -7.56  MgCO3
  O2(g)           -61.51    -64.40   -2.89  O2
  Sulfur          -12.67     -7.79    4.88  S
  Sylvite          -3.60     -2.70    0.90  KCl
  Witherite        -4.64    -13.20   -8.56  BaCO3

**For a gas, SI = log10(fugacity). Fugacity = pressure * phi / 1 atm.
  For ideal gases, phi = 1.

Reaction step 2.

Using solution 1.	
Using reaction 4.	

Reaction 4.	

	 -2.600e+01 moles of the following reaction have been added:

	                 Relative
	Reactant            moles

	H2O                  1.00000

	                 Relative
	Element             moles
	H                    2.00000
	O                    1.00000

-----------------------------Solution composition------------------------------

	Elements           Molality       Moles

	Ba                9.406e-07   5.000e-07
	C                 7.525e-03   4.000e-03
	Ca                4.515e-02   2.400e-02
	Cl                9.142e-01   4.860e-01
	K                 1.317e-02   7.000e-03
	Mg                1.091e-01   5.800e-02
	Na                1.012e+00   5.380e-01
	S                 2.050e-01   1.090e-01

----------------------------Description of solution----------------------------

                                       pH  =   6.853      Charge balance
                                       pe  =  -1.523      Adjusted to redox equilibrium
      Specific Conductance (µS/cm,  25°C)  = 86651
                          Density (g/cm³)  =   1.05725
                               Volume (L)  =   0.54343
                        Activity of water  =   0.963
                 Ionic strength (mol/kgw)  =   1.339e+00
                       Mass of water (kg)  =   5.316e-01
                 Total alkalinity (eq/kg)  =   6.897e-03
                       Total CO2 (mol/kg)  =   7.525e-03
                         Temperature (°C)  =  25.00
                  Electrical balance (eq)  =   1.335e-03
 Percent error, 100*(Cat-|An|)/(Cat+|An|)  =   0.11
                               Iterations  =  11
                                  Total H  = 5.901605e+01
                                  Total O  = 2.995386e+01

----------------------------Distribution of species----------------------------

                                               Log       Log       Log    mole V
   Species          Molality    Activity  Molality  Activity     Gamma    cm³/mol

   H+              1.907e-07   1.402e-07    -6.720    -6.853    -0.133      0.00
   OH-             1.245e-07   6.950e-08    -6.905    -7.158    -0.253     -1.59
   H2O             5.551e+01   9.629e-01     1.744    -0.016     0.000     18.07
Ba            9.406e-07
   Ba+2            5.241e-07   9.719e-08    -6.281    -7.012    -0.732    -10.25
   BaSO4           4.134e-07   5.628e-07    -6.384    -6.250     0.134     (0)  
   BaHCO3+         3.048e-09   2.602e-09    -8.516    -8.585    -0.069     (0)  
   BaCO3           3.446e-11   4.690e-11   -10.463   -10.329     0.134    -10.70
   BaOH+           3.613e-14   2.261e-14   -13.442   -13.646    -0.203     (0)  
C(-4)         4.042e-22
   CH4             4.042e-22   5.501e-22   -21.393   -21.260     0.134     35.46
C(4)          7.525e-03
   HCO3-           4.359e-03   2.793e-03    -2.361    -2.554    -0.193     28.83
   MgHCO3+         1.180e-03   6.884e-04    -2.928    -3.162    -0.234      5.88
   NaHCO3          8.256e-04   1.124e-03    -3.083    -2.949     0.134      1.80
   CO2             6.719e-04   9.146e-04    -3.173    -3.039     0.134     34.43
   CaHCO3+         4.442e-04   2.935e-04    -3.352    -3.532    -0.180     10.00
   NaCO3-          1.458e-05   1.244e-05    -4.836    -4.905    -0.069      6.32
   MgCO3           1.379e-05   1.877e-05    -4.860    -4.726     0.134    -17.09
   CaCO3           9.495e-06   1.292e-05    -5.023    -4.889     0.134    -14.60
   CO3-2           5.543e-06   9.340e-07    -5.256    -6.030    -0.773     -0.39
   (CO2)2          1.128e-08   1.535e-08    -7.948    -7.814     0.134     68.87
   BaHCO3+         3.048e-09   2.602e-09    -8.516    -8.585    -0.069     (0)  
   BaCO3           3.446e-11   4.690e-11   -10.463   -10.329     0.134    -10.70
Ca            4.515e-02
   Ca+2            3.226e-02   8.237e-03    -1.491    -2.084    -0.593    -16.27
   CaSO4           1.243e-02   1.692e-02    -1.905    -1.772     0.134      7.50
   CaHCO3+         4.442e-04   2.935e-04    -3.352    -3.532    -0.180     10.00
   CaCO3           9.495e-06   1.292e-05    -5.023    -4.889     0.134    -14.60
   CaHSO4+         1.827e-08   1.560e-08    -7.738    -7.807    -0.069     (0)  
   CaOH+           1.099e-08   9.386e-09    -7.959    -8.028    -0.069     (0)  
Cl            9.142e-01
   Cl-             9.142e-01   5.443e-01    -0.039    -0.264    -0.225     19.08
H(0)          2.271e-14
   H2              1.135e-14   1.545e-14   -13.945   -13.811     0.134     28.61
K             1.317e-02
   K+              1.226e-02   7.167e-03    -1.912    -2.145    -0.233     10.01
   KSO4-           9.080e-04   5.818e-04    -3.042    -3.235    -0.193     35.17
Mg            1.091e-01
   Mg+2            6.600e-02   2.106e-02    -1.180    -1.676    -0.496    -19.97
   MgSO4           4.191e-02   5.705e-02    -1.378    -1.244     0.134      5.84
   MgHCO3+         1.180e-03   6.884e-04    -2.928    -3.162    -0.234      5.88
   MgCO3           1.379e-05   1.877e-05    -4.860    -4.726     0.134    -17.09
   MgOH+           7.768e-07   5.251e-07    -6.110    -6.280    -0.170     (0)  
Na            1.012e+00
   Na+             9.466e-01   7.155e-01    -0.024    -0.145    -0.122     -0.14
   NaSO4-          6.466e-02   4.143e-02    -1.189    -1.383    -0.193     24.57
   NaHCO3          8.256e-04   1.124e-03    -3.083    -2.949     0.134      1.80
   NaCO3-          1.458e-05   1.244e-05    -4.836    -4.905    -0.069      6.32
   NaOH            3.653e-18   4.972e-18   -17.437   -17.303     0.134     (0)  
O(0)          0.000e+00
   O2              0.000e+00   0.000e+00   -64.925   -64.791     0.134     30.40
S(-2)         5.146e-18
   HS-             3.425e-18   1.911e-18   -17.465   -17.719    -0.253     21.67
   H2S             1.722e-18   2.344e-18   -17.764   -17.630     0.134     36.27
   S-2             1.072e-23   1.646e-24   -22.970   -23.784    -0.814     (0)  
   (H2S)2          2.126e-37   2.894e-37   -36.672   -36.538     0.134     30.09
S(6)          2.050e-01
   SO4-2           8.514e-02   1.155e-02    -1.070    -1.937    -0.867     18.76
   NaSO4-          6.466e-02   4.143e-02    -1.189    -1.383    -0.193     24.57
   MgSO4           4.191e-02   5.705e-02    -1.378    -1.244     0.134      5.84
   CaSO4           1.243e-02   1.692e-02    -1.905    -1.772     0.134      7.50
   KSO4-           9.080e-04   5.818e-04    -3.042    -3.235    -0.193     35.17
   BaSO4           4.134e-07   5.628e-07    -6.384    -6.250     0.134     (0)  
   HSO4-           1.845e-07   1.575e-07    -6.734    -6.803    -0.069     41.22
   CaHSO4+         1.827e-08   1.560e-08    -7.738    -7.807    -0.069     (0)  

------------------------------Saturation indices-------------------------------

  Phase               SI** log IAP   log K(298 K,   1 atm)

  Anhydrite         0.26     -4.02   -4.28  CaSO4
  Aragonite         0.22     -8.11   -8.34  CaCO3
  Barite            0.89     -8.95   -9.84  BaSO4
  Calcite           0.37     -8.11   -8.48  CaCO3
  CH4(g)          -18.46    -21.26   -2.80  CH4
  CO2(g)           -1.57     -3.04   -1.47  CO2
  Dolomite          1.26    -15.82  -17.08  CaMg(CO3)2
  Gypsum            0.53     -4.05   -4.58  CaSO4:2H2O
  H2(g)           -10.71    -13.81   -3.10  H2
  H2O(g)           -1.52     -0.02    1.50  H2O
  H2S(g)          -16.64    -24.57   -7.94  H2S
  Halite           -1.98     -0.41    1.57  NaCl
  Magnesite        -0.15     -7.71   -7.56  MgCO3
  O2(g)           -61.90    -64.79   -2.89  O2
  Sulfur          -11.85     -6.97    4.88  S
  Sylvite          -3.31     -2.41    0.90  KCl
  Witherite        -4.48    -13.04   -8.56  BaCO3

**For a gas, SI = log10(fugacity). Fugacity = pressure * phi / 1 atm.
  For ideal gases, phi = 1.

Reaction step 3.

Using solution 1.	
Using reaction 4.	

Reaction 4.	

	 -3.900e+01 moles of the following reaction have been added:

	                 Relative
	Reactant            moles

	H2O                  1.00000

	                 Relative
	Element             moles
	H                    2.00000
	O                    1.00000

-----------------------------Solution composition------------------------------

	Elements           Molality       Moles

	Ba                1.681e-06   5.000e-07
	C                 1.345e-02   4.000e-03
	Ca                8.071e-02   2.400e-02
	Cl                1.634e+00   4.860e-01
	K                 2.354e-02   7.000e-03
	Mg                1.950e-01   5.800e-02
	Na                1.809e+00   5.380e-01
	S                 3.665e-01   1.090e-01

----------------------------Description of solution----------------------------

                                       pH  =   6.629      Charge balance
                                       pe  =  -1.459      Adjusted to redox equilibrium
      Specific Conductance (µS/cm,  25°C)  = 130950
                          Density (g/cm³)  =   1.10083
                               Volume (L)  =   0.30916
                        Activity of water  =   0.934
                 Ionic strength (mol/kgw)  =   2.308e+00
                       Mass of water (kg)  =   2.974e-01
                 Total alkalinity (eq/kg)  =   1.233e-02
                       Total CO2 (mol/kg)  =   1.345e-02
                         Temperature (°C)  =  25.00
                  Electrical balance (eq)  =   1.335e-03
 Percent error, 100*(Cat-|An|)/(Cat+|An|)  =   0.11
                               Iterations  =  15
                                  Total H  = 3.301605e+01
                                  Total O  = 1.695386e+01

----------------------------Distribution of species----------------------------

                                               Log       Log       Log    mole V
   Species          Molality    Activity  Molality  Activity     Gamma    cm³/mol

   H+              3.252e-07   2.350e-07    -6.488    -6.629    -0.141      0.00
   OH-             7.704e-08   4.024e-08    -7.113    -7.395    -0.282     -0.19
   H2O             5.551e+01   9.343e-01     1.744    -0.030     0.000     18.07
Ba            1.681e-06
   Ba+2            9.531e-07   1.985e-07    -6.021    -6.702    -0.681     -9.32
   BaSO4           7.222e-07   1.229e-06    -6.141    -5.911     0.231     (0)  
   BaHCO3+         6.061e-09   6.731e-09    -8.217    -8.172     0.046     (0)  
   BaCO3           4.256e-11   7.240e-11   -10.371   -10.140     0.231    -10.70
   BaOH+           4.455e-14   2.674e-14   -13.351   -13.573    -0.222     (0)  
C(-4)         1.447e-20
   CH4             1.447e-20   2.462e-20   -19.840   -19.609     0.231     35.46
C(4)          1.345e-02
   HCO3-           5.733e-03   3.537e-03    -2.242    -2.451    -0.210     31.40
   MgHCO3+         3.571e-03   1.969e-03    -2.447    -2.706    -0.259      5.93
   NaHCO3          1.672e-03   2.844e-03    -2.777    -2.546     0.231      1.80
   CaHCO3+         1.246e-03   7.974e-04    -2.904    -3.098    -0.194     10.03
   CO2             1.176e-03   2.001e-03    -2.930    -2.699     0.231     34.43
   MgCO3           1.883e-05   3.204e-05    -4.725    -4.494     0.231    -17.09
   NaCO3-          1.692e-05   1.879e-05    -4.772    -4.726     0.046     11.22
   CaCO3           1.232e-05   2.095e-05    -4.910    -4.679     0.231    -14.60
   CO3-2           4.870e-06   7.059e-07    -5.312    -6.151    -0.839      1.44
   (CO2)2          4.318e-08   7.346e-08    -7.365    -7.134     0.231     68.87
   BaHCO3+         6.061e-09   6.731e-09    -8.217    -8.172     0.046     (0)  
   BaCO3           4.256e-11   7.240e-11   -10.371   -10.140     0.231    -10.70
Ca            8.071e-02
   Ca+2            5.664e-02   1.767e-02    -1.247    -1.753    -0.506    -15.79
   CaSO4           2.281e-02   3.880e-02    -1.642    -1.411     0.231      7.50
   CaHCO3+         1.246e-03   7.974e-04    -2.904    -3.098    -0.194     10.03
   CaCO3           1.232e-05   2.095e-05    -4.910    -4.679     0.231    -14.60
   CaHSO4+         5.397e-08   5.993e-08    -7.268    -7.222     0.046     (0)  
   CaOH+           1.050e-08   1.166e-08    -7.979    -7.933     0.046     (0)  
Cl            1.634e+00
   Cl-             1.634e+00   9.484e-01     0.213    -0.023    -0.236     19.38
H(0)          3.806e-14
   H2              1.903e-14   3.237e-14   -13.721   -13.490     0.231     28.61
K             2.354e-02
   K+              2.180e-02   1.233e-02    -1.661    -1.909    -0.247     10.48
   KSO4-           1.734e-03   1.070e-03    -2.761    -2.971    -0.210     35.51
Mg            1.950e-01
   Mg+2            1.105e-01   4.756e-02    -0.957    -1.323    -0.366    -19.46
   MgSO4           8.094e-02   1.377e-01    -1.092    -0.861     0.231      5.84
   MgHCO3+         3.571e-03   1.969e-03    -2.447    -2.706    -0.259      5.93
   MgCO3           1.883e-05   3.204e-05    -4.725    -4.494     0.231    -17.09
   MgOH+           1.045e-06   6.866e-07    -5.981    -6.163    -0.183     (0)  
Na            1.809e+00
   Na+             1.664e+00   1.430e+00     0.221     0.155    -0.066      0.25
   NaSO4-          1.434e-01   8.848e-02    -0.843    -1.053    -0.210     28.25
   NaHCO3          1.672e-03   2.844e-03    -2.777    -2.546     0.231      1.80
   NaCO3-          1.692e-05   1.879e-05    -4.772    -4.726     0.046     11.22
   NaOH            3.381e-18   5.752e-18   -17.471   -17.240     0.231     (0)  
O(0)          0.000e+00
   O2              0.000e+00   0.000e+00   -65.690   -65.459     0.231     30.40
S(-2)         2.323e-16
   HS-             1.425e-16   7.440e-17   -15.846   -16.128    -0.282     22.01
   H2S             8.986e-17   1.529e-16   -16.046   -15.816     0.231     36.27
   S-2             2.946e-22   3.824e-23   -21.531   -22.418    -0.887     (0)  
   (H2S)2          7.239e-34   1.231e-33   -33.140   -32.910     0.231     30.09
S(6)          3.665e-01
   NaSO4-          1.434e-01   8.848e-02    -0.843    -1.053    -0.210     28.25
   SO4-2           1.177e-01   1.235e-02    -0.929    -1.908    -0.979     20.13
   MgSO4           8.094e-02   1.377e-01    -1.092    -0.861     0.231      5.84
   CaSO4           2.281e-02   3.880e-02    -1.642    -1.411     0.231      7.50
   KSO4-           1.734e-03   1.070e-03    -2.761    -2.971    -0.210     35.51
   BaSO4           7.222e-07   1.229e-06    -6.141    -5.911     0.231     (0)  
   HSO4-           2.541e-07   2.822e-07    -6.595    -6.550     0.046     41.48
   CaHSO4+         5.397e-08   5.993e-08    -7.268    -7.222     0.046     (0)  

------------------------------Saturation indices-------------------------------

  Phase               SI** log IAP   log K(298 K,   1 atm)

  Anhydrite         0.62     -3.66   -4.28  CaSO4
  Aragonite         0.43     -7.90   -8.34  CaCO3
  Barite            1.23     -8.61   -9.84  BaSO4
  Calcite           0.58     -7.90   -8.48  CaCO3
  CH4(g)          -16.81    -19.61   -2.80  CH4
  CO2(g)           -1.23     -2.70   -1.47  CO2
  Dolomite          1.71    -15.38  -17.08  CaMg(CO3)2
  Gypsum            0.86     -3.72   -4.58  CaSO4:2H2O
  H2(g)           -10.39    -13.49   -3.10  H2
  H2O(g)           -1.53     -0.03    1.50  H2O
  H2S(g)          -14.82    -22.76   -7.94  H2S
  Halite           -1.44      0.13    1.57  NaCl
  Magnesite         0.09     -7.47   -7.56  MgCO3
  O2(g)           -62.57    -65.46   -2.89  O2
  Sulfur          -10.36     -5.48    4.88  S
  Sylvite          -2.83     -1.93    0.90  KCl
  Witherite        -4.29    -12.85   -8.56  BaCO3

**For a gas, SI = log10(fugacity). Fugacity = pressure * phi / 1 atm.
  For ideal gases, phi = 1.

Reaction step 4.

Using solution 1.	
Using reaction 4.	

Reaction 4.	

	 -5.200e+01 moles of the following reaction have been added:

	                 Relative
	Reactant            moles

	H2O                  1.00000

	                 Relative
	Element             moles
	H                    2.00000
	O                    1.00000

-----------------------------Solution composition------------------------------

	Elements           Molality       Moles

	Ba                7.915e-06   5.000e-07
	C                 6.332e-02   4.000e-03
	Ca                3.799e-01   2.400e-02
	Cl                7.694e+00   4.860e-01
	K                 1.108e-01   7.000e-03
	Mg                9.182e-01   5.800e-02
	Na                8.517e+00   5.380e-01
	S                 1.726e+00   1.090e-01

----------------------------Description of solution----------------------------

                                       pH  =   4.497      Charge balance
                                       pe  =   0.828      Adjusted to redox equilibrium
      Specific Conductance (µS/cm,  25°C)  = 286958
                          Density (g/cm³)  =   1.37557
                               Volume (L)  =   0.07715
                        Activity of water  =   0.698
                 Ionic strength (mol/kgw)  =   9.794e+00
                       Mass of water (kg)  =   6.317e-02
                 Total alkalinity (eq/kg)  =   5.804e-02
                       Total CO2 (mol/kg)  =   6.332e-02
                         Temperature (°C)  =  25.00
                  Electrical balance (eq)  =   1.335e-03
 Percent error, 100*(Cat-|An|)/(Cat+|An|)  =   0.12
                               Iterations  =  23
                                  Total H  = 7.016050e+00
                                  Total O  = 3.953858e+00

----------------------------Distribution of species----------------------------

                                               Log       Log       Log    mole V
   Species          Molality    Activity  Molality  Activity     Gamma    cm³/mol

   H+              4.558e-05   3.185e-05    -4.341    -4.497    -0.156      0.00
   OH-             4.934e-10   2.218e-10    -9.307    -9.654    -0.347      9.48
   H2O             5.551e+01   6.981e-01     1.744    -0.156     0.000     18.07
Ba            7.915e-06
   Ba+2            5.420e-06   9.628e-06    -5.266    -5.016     0.250     -2.89
   BaSO4           2.492e-06   2.377e-05    -5.603    -4.624     0.979     (0)  
   BaHCO3+         3.457e-09   4.474e-08    -8.461    -7.349     1.112     (0)  
   BaCO3           3.723e-13   3.551e-12   -12.429   -11.450     0.979    -10.70
   BaOH+           1.301e-14   7.150e-15   -13.886   -14.146    -0.260     (0)  
C(-4)         6.595e-21
   CH4             6.595e-21   6.289e-20   -20.181   -19.201     0.979     35.46
C(4)          6.332e-02
   MgHCO3+         4.590e-02   2.237e-02    -1.338    -1.650    -0.312      6.03
   CaHCO3+         1.068e-02   6.394e-03    -1.972    -2.194    -0.223     10.09
   CO2             5.215e-03   4.973e-02    -2.283    -1.303     0.979     34.43
   HCO3-           8.496e-04   4.848e-04    -3.071    -3.314    -0.244     50.14
   NaHCO3          6.715e-04   6.404e-03    -3.173    -2.194     0.979      1.80
   (CO2)2          4.761e-06   4.540e-05    -5.322    -4.343     0.979     68.87
   MgCO3           2.816e-07   2.686e-06    -6.550    -5.571     0.979    -17.09
   CaCO3           1.300e-07   1.240e-06    -6.886    -5.907     0.979    -14.60
   NaCO3-          2.413e-08   3.122e-07    -7.618    -6.506     1.112     47.90
   CO3-2           6.732e-09   7.138e-10    -8.172    -9.146    -0.975     11.06
   BaHCO3+         3.457e-09   4.474e-08    -8.461    -7.349     1.112     (0)  
   BaCO3           3.723e-13   3.551e-12   -12.429   -11.450     0.979    -10.70
Ca            3.799e-01
   Ca+2            2.743e-01   1.034e+00    -0.562     0.014     0.576    -12.84
   CaSO4           9.494e-02   9.054e-01    -1.023    -0.043     0.979      7.50
   CaHCO3+         1.068e-02   6.394e-03    -1.972    -2.194    -0.223     10.09
   CaHSO4+         1.465e-05   1.896e-04    -4.834    -3.722     1.112     (0)  
   CaCO3           1.300e-07   1.240e-06    -6.886    -5.907     0.979    -14.60
   CaOH+           2.905e-10   3.760e-09    -9.537    -8.425     1.112     (0)  
Cl            7.694e+00
   Cl-             7.694e+00   5.192e+00     0.886     0.715    -0.171     20.57
H(0)          3.323e-15
   H2              1.661e-15   1.584e-14   -14.780   -13.800     0.979     28.61
K             1.108e-01
   K+              1.067e-01   6.731e-02    -0.972    -1.172    -0.200     13.76
   KSO4-           4.082e-03   2.329e-03    -2.389    -2.633    -0.244     37.03
Mg            9.182e-01
   MgSO4           4.774e-01   4.552e+00    -0.321     0.658     0.979      5.84
   Mg+2            3.949e-01   3.943e+00    -0.403     0.596     0.999    -16.15
   MgHCO3+         4.590e-02   2.237e-02    -1.338    -1.650    -0.312      6.03
   MgOH+           5.063e-07   3.138e-07    -6.296    -6.503    -0.208     (0)  
   MgCO3           2.816e-07   2.686e-06    -6.550    -5.571     0.979    -17.09
Na            8.517e+00
   Na+             7.500e+00   2.349e+01     0.875     1.371     0.496      1.99
   NaSO4-          1.016e+00   5.798e-01     0.007    -0.237    -0.244     45.10
   NaHCO3          6.715e-04   6.404e-03    -3.173    -2.194     0.979      1.80
   NaCO3-          2.413e-08   3.122e-07    -7.618    -6.506     1.112     47.90
   NaOH            5.464e-20   5.211e-19   -19.262   -18.283     0.979     (0)  
O(0)          0.000e+00
   O2              0.000e+00   0.000e+00   -66.071   -65.092     0.979     30.40
S(-2)         2.326e-14
   H2S             2.162e-14   2.061e-13   -13.665   -12.686     0.979     36.27
   HS-             1.646e-15   7.402e-16   -14.783   -15.131    -0.347     23.53
   S-2             3.077e-23   2.807e-24   -22.512   -23.552    -1.040     (0)  
   (H2S)2          2.348e-28   2.239e-27   -27.629   -26.650     0.979     30.09
S(6)          1.726e+00
   NaSO4-          1.016e+00   5.798e-01     0.007    -0.237    -0.244     45.10
   MgSO4           4.774e-01   4.552e+00    -0.321     0.658     0.979      5.84
   SO4-2           1.330e-01   4.925e-03    -0.876    -2.308    -1.432     26.20
   CaSO4           9.494e-02   9.054e-01    -1.023    -0.043     0.979      7.50
   KSO4-           4.082e-03   2.329e-03    -2.389    -2.633    -0.244     37.03
   CaHSO4+         1.465e-05   1.896e-04    -4.834    -3.722     1.112     (0)  
   BaSO4           2.492e-06   2.377e-05    -5.603    -4.624     0.979     (0)  
   HSO4-           1.178e-06   1.525e-05    -5.929    -4.817     1.112     42.36

------------------------------Saturation indices-------------------------------

  Phase               SI** log IAP   log K(298 K,   1 atm)

  Anhydrite         1.98     -2.29   -4.28  CaSO4
  Aragonite        -0.80     -9.13   -8.34  CaCO3
  Barite            2.52     -7.32   -9.84  BaSO4
  Calcite          -0.65     -9.13   -8.48  CaCO3
  CH4(g)          -16.40    -19.20   -2.80  CH4
  CO2(g)            0.16     -1.30   -1.47  CO2
  Dolomite         -0.60    -17.68  -17.08  CaMg(CO3)2
  Gypsum            1.98     -2.61   -4.58  CaSO4:2H2O
  H2(g)           -10.70    -13.80   -3.10  H2
  H2O(g)           -1.66     -0.16    1.50  H2O
  H2S(g)          -11.69    -19.63   -7.94  H2S
  Halite            0.52      2.09    1.57  NaCl
  Magnesite        -0.99     -8.55   -7.56  MgCO3
  O2(g)           -62.20    -65.09   -2.89  O2
  Sulfur           -6.92     -2.04    4.88  S
  Sylvite          -1.36     -0.46    0.90  KCl
  Witherite        -5.60    -14.16   -8.56  BaCO3

**For a gas, SI = log10(fugacity). Fugacity = pressure * phi / 1 atm.
  For ideal gases, phi = 1.

------------------
End of simulation.
------------------

------------------------------------
Reading input data for simulation 2.
------------------------------------

----------------------------------
End of Run after 0.009288 Seconds.
----------------------------------

